Info: SIMULATION PARAMETERS:
Info: TIMESTEP               2
Info: NUMBER OF STEPS        0
Info: STEPS PER CYCLE        20
Info: PERIODIC CELL BASIS 1  122.146 0 0
Info: PERIODIC CELL BASIS 2  0 122.146 0
Info: PERIODIC CELL BASIS 3  0 0 122.146
Info: PERIODIC CELL CENTER   -2.1574 0.1024 -1.98903
Info: WRAPPING WATERS AROUND PERIODIC BOUNDARIES ON OUTPUT.
Info: WRAPPING ALL CLUSTERS AROUND PERIODIC BOUNDARIES ON OUTPUT.
Info: FIRST LDB TIMESTEP     100
Info: LAST LDB TIMESTEP     -1
Info: HOM BACKGROUND SCALING 1
Info: PME BACKGROUND SCALING 1
Info: MIN ATOMS PER PATCH    40
Info: INITIAL TEMPERATURE    0
Info: CENTER OF MASS MOVING INITIALLY? NO
Info: DIELECTRIC             1
Info: EXCLUDE                SCALED ONE-FOUR
Info: 1-4 ELECTROSTATICS SCALED BY 1
Info: MODIFIED 1-4 VDW PARAMETERS WILL BE USED
Info: DCD FILENAME           Minimization.dcd
Info: DCD FREQUENCY          1000
Info: DCD FIRST STEP         1000
Info: DCD FILE WILL CONTAIN UNIT CELL DATA
Info: XST FILENAME           Minimization.xst
Info: XST FREQUENCY          1000
Info: NO VELOCITY DCD OUTPUT
Info: NO FORCE DCD OUTPUT
Info: OUTPUT FILENAME        Minimization
Info: RESTART FILENAME       Minimization.restart
Info: RESTART FREQUENCY      1000
Info: BINARY RESTART FILES WILL BE USED
Info: SWITCHING ACTIVE
Info: SWITCHING ON           10
Info: SWITCHING OFF          12
Info: PAIRLIST DISTANCE      14
Info: PAIRLIST SHRINK RATE   0.01
Info: PAIRLIST GROW RATE     0.01
Info: PAIRLIST TRIGGER       0.3
Info: PAIRLISTS PER CYCLE    2
Info: PAIRLISTS ENABLED
Info: MARGIN                 0.495
Info: HYDROGEN GROUP CUTOFF  2.5
Info: PATCH DIMENSION        16.995
Info: ENERGY OUTPUT STEPS    40
Info: CROSSTERM ENERGY INCLUDED IN DIHEDRAL
Info: TIMING OUTPUT STEPS    40
Info: PRESSURE OUTPUT STEPS  40
Info: HARMONIC CONSTRAINTS ACTIVE
Info: HARMONIC CONS EXP      2
Info: HARMONIC CONS SCALING  2
Info: LANGEVIN DYNAMICS ACTIVE
Info: LANGEVIN TEMPERATURE   0
Info: LANGEVIN USING BBK INTEGRATOR
Info: LANGEVIN DAMPING COEFFICIENT IS 1 INVERSE PS
Info: LANGEVIN DYNAMICS NOT APPLIED TO HYDROGENS
Info: LANGEVIN PISTON PRESSURE CONTROL ACTIVE
Info:        TARGET PRESSURE IS 1.01325 BAR
Info:     OSCILLATION PERIOD IS 200 FS
Info:             DECAY TIME IS 100 FS
Info:     PISTON TEMPERATURE IS 273 K
Info:       PRESSURE CONTROL IS GROUP-BASED
Info:    INITIAL STRAIN RATE IS 0 0 0
Info:       CELL FLUCTUATION IS ISOTROPIC
Info: PARTICLE MESH EWALD (PME) ACTIVE
Info: PME TOLERANCE               1e-06
Info: PME EWALD COEFFICIENT       0.257952
Info: PME INTERPOLATION ORDER     4
Info: PME GRID DIMENSIONS         128 128 128
Info: PME MAXIMUM GRID SPACING    1
Info: FULL ELECTROSTATIC EVALUATION FREQUENCY      2
Info: USING VERLET I (r-RESPA) MTS SCHEME.
Info: C1 SPLITTING OF LONG RANGE ELECTROSTATICS
Info: PLACING ATOMS IN PATCHES BY HYDROGEN GROUPS
Info: RIGID BONDS TO HYDROGEN : ALL
Info:         ERROR TOLERANCE : 1e-08
Info:          MAX ITERATIONS : 100
Info: RIGID WATER USING SETTLE ALGORITHM
Info: RANDOM NUMBER SEED     1557854441
Info: USE HYDROGEN BONDS?    NO
Info: COORDINATE PDB         1qqd_QwikMD.pdb
Info: STRUCTURE FILE         1qqd_QwikMD.psf
Info: PARAMETER file: CHARMM format!
Info: PARAMETERS             toppar_water_ions_namd.str
Info: PARAMETERS             toppar_all36_carb_glycopeptide.str
Info: PARAMETERS             par_all36_lipid.prm
Info: PARAMETERS             par_all36_na.prm
Info: PARAMETERS             par_all36_prot.prm
Info: PARAMETERS             par_all36_carb.prm
Info: PARAMETERS             par_all36_cgenff.prm
Info: USING ARITHMETIC MEAN TO COMBINE L-J SIGMA PARAMETERS
Info: SKIPPING rtf SECTION IN STREAM FILE
Info: SKIPPING rtf SECTION IN STREAM FILE
Info: SUMMARY OF PARAMETERS:
Info: 917 BONDS
Info: 2684 ANGLES
Info: 6576 DIHEDRAL
Info: 193 IMPROPER
Info: 6 CROSSTERM
Info: 350 VDW
Info: 6 VDW_PAIRS
Info: 0 NBTHOLE_PAIRS
Info:
Info: STRUCTURE SUMMARY:
Info: 174771 ATOMS
Info: 118419 BONDS
Info: 67210 ANGLES
Info: 16387 DIHEDRALS
Info: 1119 IMPROPERS
Info: 375 CROSSTERMS
Info: 0 EXCLUSIONS
Info: 1527 CONSTRAINTS
Info: 171289 RIGID BONDS
Info: 353024 DEGREES OF FREEDOM
Info: 59596 HYDROGEN GROUPS
Info: 4 ATOMS IN LARGEST HYDROGEN GROUP
Info: 59596 MIGRATION GROUPS
Info: 4 ATOMS IN LARGEST MIGRATION GROUP
Info: TOTAL MASS = 1.06501e+06 amu
Info: TOTAL CHARGE = 4.5877e-06 e
Info: MASS DENSITY = 0.970458 g/cm^3
Info: ATOM DENSITY = 0.0959029 atoms/A^3
Info:
Info: ADDED 201650 IMPLICIT EXCLUSIONS
Info: NONBONDED TABLE R-SQUARED SPACING: 0.0625
Info: NONBONDED TABLE SIZE: 769 POINTS
Info: REMOVING COM VELOCITY 0 0 0
TCL: Minimizing for 2000 steps
ETITLE: TS BOND ANGLE DIHED IMPRP ELECT VDW BOUNDARY MISC KINETIC TOTAL TEMP POTENTIAL TOTAL3 TEMPAVG PRESSURE GPRESSURE VOLUME PRESSAVG GPRESSAVG
ENERGY: 0 694.4913 1168.8535 3520.2916 3.9025 -575002.4654 2159964.2708 0.0001 0.0000 0.0000 1590349.3443 0.0000 1590349.3443 1590349.3443 0.0000 339865.3190 335872.3902 1822374.9968 339865.3190 335872.3902
ENERGY: 400 540.5201 1159.2034 3540.1475 54.7077 -705992.8007 44537.6098 86.4531 0.0000 0.0000 -656074.1592 0.0000 -656074.1592 -656074.1592 0.0000 14482.6283 7164.8757 1822374.9968 14482.6283 7164.8757
ENERGY: 800 830.6099 1329.3077 3522.0577 51.0500 -756277.1391 63740.6820 149.9915 0.0000 0.0000 -686653.4403 0.0000 -686653.4403 -686653.4403 0.0000 17399.7285 9530.9707 1822374.9968 17399.7285 9530.9707
ENERGY: 1200 422.5325 1167.8014 3490.0009 47.3286 -785202.4112 74662.3366 164.9936 0.0000 0.0000 -705247.4176 0.0000 -705247.4176 -705247.4176 0.0000 19176.0755 10991.6515 1822374.9968 19176.0755 10991.6515
ENERGY: 1600 418.7917 1169.0139 3499.9096 43.1419 -800968.4972 81625.2578 182.5600 0.0000 0.0000 -714029.8223 0.0000 -714029.8223 -714029.8223 0.0000 20341.1338 11999.3176 1822374.9968 20341.1338 11999.3176
ENERGY: 2000 414.2598 1161.2510 3503.8787 41.6514 -807662.6975 83964.6394 182.6409 0.0000 0.0000 -718394.3762 0.0000 -718394.3762 -718394.3762 0.0000 20708.3585 12291.6605 1822374.9968 20708.3585 12291.6605
